!C:\Users\ppeters\Documents\Mestrado\OpenDSS_CostaRica_data\DSS\profiles
New Loadshape.curve0_00R npts=96 minterval=15 mult=(file=C:\Users\ppeters\Documents\Mestrado\OpenDSS_CostaRica_data\DSS\profiles\residential\curve0_00R.txt) useactual=no 
New Loadshape.curve1003_00R npts=96 minterval=15 mult=(file=C:\Users\ppeters\Documents\Mestrado\OpenDSS_CostaRica_data\DSS\profiles\residential\curve1003_00R.txt) useactual=no 
New Loadshape.curve1032_00R npts=96 minterval=15 mult=(file=C:\Users\ppeters\Documents\Mestrado\OpenDSS_CostaRica_data\DSS\profiles\residential\curve1032_00R.txt) useactual=no 
New Loadshape.curve103_00R npts=96 minterval=15 mult=(file=C:\Users\ppeters\Documents\Mestrado\OpenDSS_CostaRica_data\DSS\profiles\residential\curve103_00R.txt) useactual=no 
New Loadshape.curve1064_00R npts=96 minterval=15 mult=(file=C:\Users\ppeters\Documents\Mestrado\OpenDSS_CostaRica_data\DSS\profiles\residential\curve1064_00R.txt) useactual=no 
New Loadshape.curve107_00R npts=96 minterval=15 mult=(file=C:\Users\ppeters\Documents\Mestrado\OpenDSS_CostaRica_data\DSS\profiles\residential\curve107_00R.txt) useactual=no 
New Loadshape.curve1094_00R npts=96 minterval=15 mult=(file=C:\Users\ppeters\Documents\Mestrado\OpenDSS_CostaRica_data\DSS\profiles\residential\curve1094_00R.txt) useactual=no 
New Loadshape.curve10_00R npts=96 minterval=15 mult=(file=C:\Users\ppeters\Documents\Mestrado\OpenDSS_CostaRica_data\DSS\profiles\residential\curve10_00R.txt) useactual=no 
New Loadshape.curve112_00R npts=96 minterval=15 mult=(file=C:\Users\ppeters\Documents\Mestrado\OpenDSS_CostaRica_data\DSS\profiles\residential\curve112_00R.txt) useactual=no 
New Loadshape.curve1138_00R npts=96 minterval=15 mult=(file=C:\Users\ppeters\Documents\Mestrado\OpenDSS_CostaRica_data\DSS\profiles\residential\curve1138_00R.txt) useactual=no 
New Loadshape.curve115_00R npts=96 minterval=15 mult=(file=C:\Users\ppeters\Documents\Mestrado\OpenDSS_CostaRica_data\DSS\profiles\residential\curve115_00R.txt) useactual=no 
New Loadshape.curve1180_00R npts=96 minterval=15 mult=(file=C:\Users\ppeters\Documents\Mestrado\OpenDSS_CostaRica_data\DSS\profiles\residential\curve1180_00R.txt) useactual=no 
New Loadshape.curve118_00R npts=96 minterval=15 mult=(file=C:\Users\ppeters\Documents\Mestrado\OpenDSS_CostaRica_data\DSS\profiles\residential\curve118_00R.txt) useactual=no 
New Loadshape.curve11_00R npts=96 minterval=15 mult=(file=C:\Users\ppeters\Documents\Mestrado\OpenDSS_CostaRica_data\DSS\profiles\residential\curve11_00R.txt) useactual=no 
New Loadshape.curve121_00R npts=96 minterval=15 mult=(file=C:\Users\ppeters\Documents\Mestrado\OpenDSS_CostaRica_data\DSS\profiles\residential\curve121_00R.txt) useactual=no 
New Loadshape.curve1229_00R npts=96 minterval=15 mult=(file=C:\Users\ppeters\Documents\Mestrado\OpenDSS_CostaRica_data\DSS\profiles\residential\curve1229_00R.txt) useactual=no 
New Loadshape.curve124_00R npts=96 minterval=15 mult=(file=C:\Users\ppeters\Documents\Mestrado\OpenDSS_CostaRica_data\DSS\profiles\residential\curve124_00R.txt) useactual=no 
New Loadshape.curve1272_00R npts=96 minterval=15 mult=(file=C:\Users\ppeters\Documents\Mestrado\OpenDSS_CostaRica_data\DSS\profiles\residential\curve1272_00R.txt) useactual=no 
New Loadshape.curve127_00R npts=96 minterval=15 mult=(file=C:\Users\ppeters\Documents\Mestrado\OpenDSS_CostaRica_data\DSS\profiles\residential\curve127_00R.txt) useactual=no 
New Loadshape.curve12_00R npts=96 minterval=15 mult=(file=C:\Users\ppeters\Documents\Mestrado\OpenDSS_CostaRica_data\DSS\profiles\residential\curve12_00R.txt) useactual=no 
New Loadshape.curve132_00R npts=96 minterval=15 mult=(file=C:\Users\ppeters\Documents\Mestrado\OpenDSS_CostaRica_data\DSS\profiles\residential\curve132_00R.txt) useactual=no 
New Loadshape.curve1344_00R npts=96 minterval=15 mult=(file=C:\Users\ppeters\Documents\Mestrado\OpenDSS_CostaRica_data\DSS\profiles\residential\curve1344_00R.txt) useactual=no 
New Loadshape.curve136_00R npts=96 minterval=15 mult=(file=C:\Users\ppeters\Documents\Mestrado\OpenDSS_CostaRica_data\DSS\profiles\residential\curve136_00R.txt) useactual=no 
New Loadshape.curve1380_00R npts=96 minterval=15 mult=(file=C:\Users\ppeters\Documents\Mestrado\OpenDSS_CostaRica_data\DSS\profiles\residential\curve1380_00R.txt) useactual=no 
New Loadshape.curve139_43R npts=96 minterval=15 mult=(file=C:\Users\ppeters\Documents\Mestrado\OpenDSS_CostaRica_data\DSS\profiles\residential\curve139_43R.txt) useactual=no 
New Loadshape.curve13_00R npts=96 minterval=15 mult=(file=C:\Users\ppeters\Documents\Mestrado\OpenDSS_CostaRica_data\DSS\profiles\residential\curve13_00R.txt) useactual=no 
New Loadshape.curve1416_00R npts=96 minterval=15 mult=(file=C:\Users\ppeters\Documents\Mestrado\OpenDSS_CostaRica_data\DSS\profiles\residential\curve1416_00R.txt) useactual=no 
New Loadshape.curve143_00R npts=96 minterval=15 mult=(file=C:\Users\ppeters\Documents\Mestrado\OpenDSS_CostaRica_data\DSS\profiles\residential\curve143_00R.txt) useactual=no 
New Loadshape.curve1448_00R npts=96 minterval=15 mult=(file=C:\Users\ppeters\Documents\Mestrado\OpenDSS_CostaRica_data\DSS\profiles\residential\curve1448_00R.txt) useactual=no 
New Loadshape.curve146_00R npts=96 minterval=15 mult=(file=C:\Users\ppeters\Documents\Mestrado\OpenDSS_CostaRica_data\DSS\profiles\residential\curve146_00R.txt) useactual=no 
New Loadshape.curve14_00R npts=96 minterval=15 mult=(file=C:\Users\ppeters\Documents\Mestrado\OpenDSS_CostaRica_data\DSS\profiles\residential\curve14_00R.txt) useactual=no 
New Loadshape.curve150_00R npts=96 minterval=15 mult=(file=C:\Users\ppeters\Documents\Mestrado\OpenDSS_CostaRica_data\DSS\profiles\residential\curve150_00R.txt) useactual=no 
New Loadshape.curve1544_00R npts=96 minterval=15 mult=(file=C:\Users\ppeters\Documents\Mestrado\OpenDSS_CostaRica_data\DSS\profiles\residential\curve1544_00R.txt) useactual=no 
New Loadshape.curve154_00R npts=96 minterval=15 mult=(file=C:\Users\ppeters\Documents\Mestrado\OpenDSS_CostaRica_data\DSS\profiles\residential\curve154_00R.txt) useactual=no 
New Loadshape.curve158_00R npts=96 minterval=15 mult=(file=C:\Users\ppeters\Documents\Mestrado\OpenDSS_CostaRica_data\DSS\profiles\residential\curve158_00R.txt) useactual=no 
New Loadshape.curve162_00R npts=96 minterval=15 mult=(file=C:\Users\ppeters\Documents\Mestrado\OpenDSS_CostaRica_data\DSS\profiles\residential\curve162_00R.txt) useactual=no 
New Loadshape.curve167_00R npts=96 minterval=15 mult=(file=C:\Users\ppeters\Documents\Mestrado\OpenDSS_CostaRica_data\DSS\profiles\residential\curve167_00R.txt) useactual=no 
New Loadshape.curve1688_00R npts=96 minterval=15 mult=(file=C:\Users\ppeters\Documents\Mestrado\OpenDSS_CostaRica_data\DSS\profiles\residential\curve1688_00R.txt) useactual=no 
New Loadshape.curve16_00R npts=96 minterval=15 mult=(file=C:\Users\ppeters\Documents\Mestrado\OpenDSS_CostaRica_data\DSS\profiles\residential\curve16_00R.txt) useactual=no 
New Loadshape.curve172_00R npts=96 minterval=15 mult=(file=C:\Users\ppeters\Documents\Mestrado\OpenDSS_CostaRica_data\DSS\profiles\residential\curve172_00R.txt) useactual=no 
New Loadshape.curve177_00R npts=96 minterval=15 mult=(file=C:\Users\ppeters\Documents\Mestrado\OpenDSS_CostaRica_data\DSS\profiles\residential\curve177_00R.txt) useactual=no 
New Loadshape.curve180_93R npts=96 minterval=15 mult=(file=C:\Users\ppeters\Documents\Mestrado\OpenDSS_CostaRica_data\DSS\profiles\residential\curve180_93R.txt) useactual=no 
New Loadshape.curve1840_00R npts=96 minterval=15 mult=(file=C:\Users\ppeters\Documents\Mestrado\OpenDSS_CostaRica_data\DSS\profiles\residential\curve1840_00R.txt) useactual=no 
New Loadshape.curve188_00R npts=96 minterval=15 mult=(file=C:\Users\ppeters\Documents\Mestrado\OpenDSS_CostaRica_data\DSS\profiles\residential\curve188_00R.txt) useactual=no 
New Loadshape.curve18_00R npts=96 minterval=15 mult=(file=C:\Users\ppeters\Documents\Mestrado\OpenDSS_CostaRica_data\DSS\profiles\residential\curve18_00R.txt) useactual=no 
New Loadshape.curve1912_00R npts=96 minterval=15 mult=(file=C:\Users\ppeters\Documents\Mestrado\OpenDSS_CostaRica_data\DSS\profiles\residential\curve1912_00R.txt) useactual=no 
New Loadshape.curve194_00R npts=96 minterval=15 mult=(file=C:\Users\ppeters\Documents\Mestrado\OpenDSS_CostaRica_data\DSS\profiles\residential\curve194_00R.txt) useactual=no 
New Loadshape.curve198_33R npts=96 minterval=15 mult=(file=C:\Users\ppeters\Documents\Mestrado\OpenDSS_CostaRica_data\DSS\profiles\residential\curve198_33R.txt) useactual=no 
New Loadshape.curve19_00R npts=96 minterval=15 mult=(file=C:\Users\ppeters\Documents\Mestrado\OpenDSS_CostaRica_data\DSS\profiles\residential\curve19_00R.txt) useactual=no 
New Loadshape.curve1_00R npts=96 minterval=15 mult=(file=C:\Users\ppeters\Documents\Mestrado\OpenDSS_CostaRica_data\DSS\profiles\residential\curve1_00R.txt) useactual=no 
New Loadshape.curve2037_00R npts=96 minterval=15 mult=(file=C:\Users\ppeters\Documents\Mestrado\OpenDSS_CostaRica_data\DSS\profiles\residential\curve2037_00R.txt) useactual=no 
New Loadshape.curve207_00R npts=96 minterval=15 mult=(file=C:\Users\ppeters\Documents\Mestrado\OpenDSS_CostaRica_data\DSS\profiles\residential\curve207_00R.txt) useactual=no 
New Loadshape.curve20_00R npts=96 minterval=15 mult=(file=C:\Users\ppeters\Documents\Mestrado\OpenDSS_CostaRica_data\DSS\profiles\residential\curve20_00R.txt) useactual=no 
New Loadshape.curve211_74R npts=96 minterval=15 mult=(file=C:\Users\ppeters\Documents\Mestrado\OpenDSS_CostaRica_data\DSS\profiles\residential\curve211_74R.txt) useactual=no 
New Loadshape.curve215_30R npts=96 minterval=15 mult=(file=C:\Users\ppeters\Documents\Mestrado\OpenDSS_CostaRica_data\DSS\profiles\residential\curve215_30R.txt) useactual=no 
New Loadshape.curve217_83R npts=96 minterval=15 mult=(file=C:\Users\ppeters\Documents\Mestrado\OpenDSS_CostaRica_data\DSS\profiles\residential\curve217_83R.txt) useactual=no 
New Loadshape.curve2180_00R npts=96 minterval=15 mult=(file=C:\Users\ppeters\Documents\Mestrado\OpenDSS_CostaRica_data\DSS\profiles\residential\curve2180_00R.txt) useactual=no 
New Loadshape.curve219_48R npts=96 minterval=15 mult=(file=C:\Users\ppeters\Documents\Mestrado\OpenDSS_CostaRica_data\DSS\profiles\residential\curve219_48R.txt) useactual=no 
New Loadshape.curve225_00R npts=96 minterval=15 mult=(file=C:\Users\ppeters\Documents\Mestrado\OpenDSS_CostaRica_data\DSS\profiles\residential\curve225_00R.txt) useactual=no 
New Loadshape.curve22_00R npts=96 minterval=15 mult=(file=C:\Users\ppeters\Documents\Mestrado\OpenDSS_CostaRica_data\DSS\profiles\residential\curve22_00R.txt) useactual=no 
New Loadshape.curve230_00R npts=96 minterval=15 mult=(file=C:\Users\ppeters\Documents\Mestrado\OpenDSS_CostaRica_data\DSS\profiles\residential\curve230_00R.txt) useactual=no 
New Loadshape.curve2340_00R npts=96 minterval=15 mult=(file=C:\Users\ppeters\Documents\Mestrado\OpenDSS_CostaRica_data\DSS\profiles\residential\curve2340_00R.txt) useactual=no 
New Loadshape.curve235_80R npts=96 minterval=15 mult=(file=C:\Users\ppeters\Documents\Mestrado\OpenDSS_CostaRica_data\DSS\profiles\residential\curve235_80R.txt) useactual=no 
New Loadshape.curve2397_21R npts=96 minterval=15 mult=(file=C:\Users\ppeters\Documents\Mestrado\OpenDSS_CostaRica_data\DSS\profiles\residential\curve2397_21R.txt) useactual=no 
New Loadshape.curve23_00R npts=96 minterval=15 mult=(file=C:\Users\ppeters\Documents\Mestrado\OpenDSS_CostaRica_data\DSS\profiles\residential\curve23_00R.txt) useactual=no 
New Loadshape.curve242_00R npts=96 minterval=15 mult=(file=C:\Users\ppeters\Documents\Mestrado\OpenDSS_CostaRica_data\DSS\profiles\residential\curve242_00R.txt) useactual=no 
New Loadshape.curve248_00R npts=96 minterval=15 mult=(file=C:\Users\ppeters\Documents\Mestrado\OpenDSS_CostaRica_data\DSS\profiles\residential\curve248_00R.txt) useactual=no 
New Loadshape.curve24_00R npts=96 minterval=15 mult=(file=C:\Users\ppeters\Documents\Mestrado\OpenDSS_CostaRica_data\DSS\profiles\residential\curve24_00R.txt) useactual=no 
New Loadshape.curve2500_00R npts=96 minterval=15 mult=(file=C:\Users\ppeters\Documents\Mestrado\OpenDSS_CostaRica_data\DSS\profiles\residential\curve2500_00R.txt) useactual=no 
New Loadshape.curve255_96R npts=96 minterval=15 mult=(file=C:\Users\ppeters\Documents\Mestrado\OpenDSS_CostaRica_data\DSS\profiles\residential\curve255_96R.txt) useactual=no 
New Loadshape.curve25_00R npts=96 minterval=15 mult=(file=C:\Users\ppeters\Documents\Mestrado\OpenDSS_CostaRica_data\DSS\profiles\residential\curve25_00R.txt) useactual=no 
New Loadshape.curve264_00R npts=96 minterval=15 mult=(file=C:\Users\ppeters\Documents\Mestrado\OpenDSS_CostaRica_data\DSS\profiles\residential\curve264_00R.txt) useactual=no 
New Loadshape.curve269_45R npts=96 minterval=15 mult=(file=C:\Users\ppeters\Documents\Mestrado\OpenDSS_CostaRica_data\DSS\profiles\residential\curve269_45R.txt) useactual=no 
New Loadshape.curve275_00R npts=96 minterval=15 mult=(file=C:\Users\ppeters\Documents\Mestrado\OpenDSS_CostaRica_data\DSS\profiles\residential\curve275_00R.txt) useactual=no 
New Loadshape.curve27_00R npts=96 minterval=15 mult=(file=C:\Users\ppeters\Documents\Mestrado\OpenDSS_CostaRica_data\DSS\profiles\residential\curve27_00R.txt) useactual=no 
New Loadshape.curve2816_00R npts=96 minterval=15 mult=(file=C:\Users\ppeters\Documents\Mestrado\OpenDSS_CostaRica_data\DSS\profiles\residential\curve2816_00R.txt) useactual=no 
New Loadshape.curve283_00R npts=96 minterval=15 mult=(file=C:\Users\ppeters\Documents\Mestrado\OpenDSS_CostaRica_data\DSS\profiles\residential\curve283_00R.txt) useactual=no 
New Loadshape.curve28_00R npts=96 minterval=15 mult=(file=C:\Users\ppeters\Documents\Mestrado\OpenDSS_CostaRica_data\DSS\profiles\residential\curve28_00R.txt) useactual=no 
New Loadshape.curve2919_00R npts=96 minterval=15 mult=(file=C:\Users\ppeters\Documents\Mestrado\OpenDSS_CostaRica_data\DSS\profiles\residential\curve2919_00R.txt) useactual=no 
New Loadshape.curve292_50R npts=96 minterval=15 mult=(file=C:\Users\ppeters\Documents\Mestrado\OpenDSS_CostaRica_data\DSS\profiles\residential\curve292_50R.txt) useactual=no 
New Loadshape.curve299_22R npts=96 minterval=15 mult=(file=C:\Users\ppeters\Documents\Mestrado\OpenDSS_CostaRica_data\DSS\profiles\residential\curve299_22R.txt) useactual=no 
New Loadshape.curve29_00R npts=96 minterval=15 mult=(file=C:\Users\ppeters\Documents\Mestrado\OpenDSS_CostaRica_data\DSS\profiles\residential\curve29_00R.txt) useactual=no 
New Loadshape.curve2_00R npts=96 minterval=15 mult=(file=C:\Users\ppeters\Documents\Mestrado\OpenDSS_CostaRica_data\DSS\profiles\residential\curve2_00R.txt) useactual=no 
New Loadshape.curve301_77R npts=96 minterval=15 mult=(file=C:\Users\ppeters\Documents\Mestrado\OpenDSS_CostaRica_data\DSS\profiles\residential\curve301_77R.txt) useactual=no 
New Loadshape.curve3033_00R npts=96 minterval=15 mult=(file=C:\Users\ppeters\Documents\Mestrado\OpenDSS_CostaRica_data\DSS\profiles\residential\curve3033_00R.txt) useactual=no 
New Loadshape.curve304_21R npts=96 minterval=15 mult=(file=C:\Users\ppeters\Documents\Mestrado\OpenDSS_CostaRica_data\DSS\profiles\residential\curve304_21R.txt) useactual=no 
New Loadshape.curve30_00R npts=96 minterval=15 mult=(file=C:\Users\ppeters\Documents\Mestrado\OpenDSS_CostaRica_data\DSS\profiles\residential\curve30_00R.txt) useactual=no 
New Loadshape.curve313_00R npts=96 minterval=15 mult=(file=C:\Users\ppeters\Documents\Mestrado\OpenDSS_CostaRica_data\DSS\profiles\residential\curve313_00R.txt) useactual=no 
New Loadshape.curve31_00R npts=96 minterval=15 mult=(file=C:\Users\ppeters\Documents\Mestrado\OpenDSS_CostaRica_data\DSS\profiles\residential\curve31_00R.txt) useactual=no 
New Loadshape.curve325_00R npts=96 minterval=15 mult=(file=C:\Users\ppeters\Documents\Mestrado\OpenDSS_CostaRica_data\DSS\profiles\residential\curve325_00R.txt) useactual=no 
New Loadshape.curve32_00R npts=96 minterval=15 mult=(file=C:\Users\ppeters\Documents\Mestrado\OpenDSS_CostaRica_data\DSS\profiles\residential\curve32_00R.txt) useactual=no 
New Loadshape.curve332_00R npts=96 minterval=15 mult=(file=C:\Users\ppeters\Documents\Mestrado\OpenDSS_CostaRica_data\DSS\profiles\residential\curve332_00R.txt) useactual=no 
New Loadshape.curve3332_00R npts=96 minterval=15 mult=(file=C:\Users\ppeters\Documents\Mestrado\OpenDSS_CostaRica_data\DSS\profiles\residential\curve3332_00R.txt) useactual=no 
New Loadshape.curve339_00R npts=96 minterval=15 mult=(file=C:\Users\ppeters\Documents\Mestrado\OpenDSS_CostaRica_data\DSS\profiles\residential\curve339_00R.txt) useactual=no 
New Loadshape.curve33_00R npts=96 minterval=15 mult=(file=C:\Users\ppeters\Documents\Mestrado\OpenDSS_CostaRica_data\DSS\profiles\residential\curve33_00R.txt) useactual=no 
New Loadshape.curve346_00R npts=96 minterval=15 mult=(file=C:\Users\ppeters\Documents\Mestrado\OpenDSS_CostaRica_data\DSS\profiles\residential\curve346_00R.txt) useactual=no 
New Loadshape.curve34_00R npts=96 minterval=15 mult=(file=C:\Users\ppeters\Documents\Mestrado\OpenDSS_CostaRica_data\DSS\profiles\residential\curve34_00R.txt) useactual=no 
New Loadshape.curve353_33R npts=96 minterval=15 mult=(file=C:\Users\ppeters\Documents\Mestrado\OpenDSS_CostaRica_data\DSS\profiles\residential\curve353_33R.txt) useactual=no 
New Loadshape.curve35_00R npts=96 minterval=15 mult=(file=C:\Users\ppeters\Documents\Mestrado\OpenDSS_CostaRica_data\DSS\profiles\residential\curve35_00R.txt) useactual=no 
New Loadshape.curve361_00R npts=96 minterval=15 mult=(file=C:\Users\ppeters\Documents\Mestrado\OpenDSS_CostaRica_data\DSS\profiles\residential\curve361_00R.txt) useactual=no 
New Loadshape.curve3652_00R npts=96 minterval=15 mult=(file=C:\Users\ppeters\Documents\Mestrado\OpenDSS_CostaRica_data\DSS\profiles\residential\curve3652_00R.txt) useactual=no 
New Loadshape.curve369_00R npts=96 minterval=15 mult=(file=C:\Users\ppeters\Documents\Mestrado\OpenDSS_CostaRica_data\DSS\profiles\residential\curve369_00R.txt) useactual=no 
New Loadshape.curve36_00R npts=96 minterval=15 mult=(file=C:\Users\ppeters\Documents\Mestrado\OpenDSS_CostaRica_data\DSS\profiles\residential\curve36_00R.txt) useactual=no 
New Loadshape.curve37_00R npts=96 minterval=15 mult=(file=C:\Users\ppeters\Documents\Mestrado\OpenDSS_CostaRica_data\DSS\profiles\residential\curve37_00R.txt) useactual=no 
New Loadshape.curve380_00R npts=96 minterval=15 mult=(file=C:\Users\ppeters\Documents\Mestrado\OpenDSS_CostaRica_data\DSS\profiles\residential\curve380_00R.txt) useactual=no 
New Loadshape.curve38_00R npts=96 minterval=15 mult=(file=C:\Users\ppeters\Documents\Mestrado\OpenDSS_CostaRica_data\DSS\profiles\residential\curve38_00R.txt) useactual=no 
New Loadshape.curve390_02R npts=96 minterval=15 mult=(file=C:\Users\ppeters\Documents\Mestrado\OpenDSS_CostaRica_data\DSS\profiles\residential\curve390_02R.txt) useactual=no 
New Loadshape.curve39_00R npts=96 minterval=15 mult=(file=C:\Users\ppeters\Documents\Mestrado\OpenDSS_CostaRica_data\DSS\profiles\residential\curve39_00R.txt) useactual=no 
New Loadshape.curve3_00R npts=96 minterval=15 mult=(file=C:\Users\ppeters\Documents\Mestrado\OpenDSS_CostaRica_data\DSS\profiles\residential\curve3_00R.txt) useactual=no 
New Loadshape.curve401_82R npts=96 minterval=15 mult=(file=C:\Users\ppeters\Documents\Mestrado\OpenDSS_CostaRica_data\DSS\profiles\residential\curve401_82R.txt) useactual=no 
New Loadshape.curve40_00R npts=96 minterval=15 mult=(file=C:\Users\ppeters\Documents\Mestrado\OpenDSS_CostaRica_data\DSS\profiles\residential\curve40_00R.txt) useactual=no 
New Loadshape.curve413_00R npts=96 minterval=15 mult=(file=C:\Users\ppeters\Documents\Mestrado\OpenDSS_CostaRica_data\DSS\profiles\residential\curve413_00R.txt) useactual=no 
New Loadshape.curve41_00R npts=96 minterval=15 mult=(file=C:\Users\ppeters\Documents\Mestrado\OpenDSS_CostaRica_data\DSS\profiles\residential\curve41_00R.txt) useactual=no 
New Loadshape.curve423_36R npts=96 minterval=15 mult=(file=C:\Users\ppeters\Documents\Mestrado\OpenDSS_CostaRica_data\DSS\profiles\residential\curve423_36R.txt) useactual=no 
New Loadshape.curve434_00R npts=96 minterval=15 mult=(file=C:\Users\ppeters\Documents\Mestrado\OpenDSS_CostaRica_data\DSS\profiles\residential\curve434_00R.txt) useactual=no 
New Loadshape.curve43_00R npts=96 minterval=15 mult=(file=C:\Users\ppeters\Documents\Mestrado\OpenDSS_CostaRica_data\DSS\profiles\residential\curve43_00R.txt) useactual=no 
New Loadshape.curve445_44R npts=96 minterval=15 mult=(file=C:\Users\ppeters\Documents\Mestrado\OpenDSS_CostaRica_data\DSS\profiles\residential\curve445_44R.txt) useactual=no 
New Loadshape.curve459_00R npts=96 minterval=15 mult=(file=C:\Users\ppeters\Documents\Mestrado\OpenDSS_CostaRica_data\DSS\profiles\residential\curve459_00R.txt) useactual=no 
New Loadshape.curve45_00R npts=96 minterval=15 mult=(file=C:\Users\ppeters\Documents\Mestrado\OpenDSS_CostaRica_data\DSS\profiles\residential\curve45_00R.txt) useactual=no 
New Loadshape.curve46_00R npts=96 minterval=15 mult=(file=C:\Users\ppeters\Documents\Mestrado\OpenDSS_CostaRica_data\DSS\profiles\residential\curve46_00R.txt) useactual=no 
New Loadshape.curve470_34R npts=96 minterval=15 mult=(file=C:\Users\ppeters\Documents\Mestrado\OpenDSS_CostaRica_data\DSS\profiles\residential\curve470_34R.txt) useactual=no 
New Loadshape.curve47_00R npts=96 minterval=15 mult=(file=C:\Users\ppeters\Documents\Mestrado\OpenDSS_CostaRica_data\DSS\profiles\residential\curve47_00R.txt) useactual=no 
New Loadshape.curve481_00R npts=96 minterval=15 mult=(file=C:\Users\ppeters\Documents\Mestrado\OpenDSS_CostaRica_data\DSS\profiles\residential\curve481_00R.txt) useactual=no 
New Loadshape.curve48_00R npts=96 minterval=15 mult=(file=C:\Users\ppeters\Documents\Mestrado\OpenDSS_CostaRica_data\DSS\profiles\residential\curve48_00R.txt) useactual=no 
New Loadshape.curve495_60R npts=96 minterval=15 mult=(file=C:\Users\ppeters\Documents\Mestrado\OpenDSS_CostaRica_data\DSS\profiles\residential\curve495_60R.txt) useactual=no 
New Loadshape.curve49_00R npts=96 minterval=15 mult=(file=C:\Users\ppeters\Documents\Mestrado\OpenDSS_CostaRica_data\DSS\profiles\residential\curve49_00R.txt) useactual=no 
New Loadshape.curve4_00R npts=96 minterval=15 mult=(file=C:\Users\ppeters\Documents\Mestrado\OpenDSS_CostaRica_data\DSS\profiles\residential\curve4_00R.txt) useactual=no 
New Loadshape.curve506_00R npts=96 minterval=15 mult=(file=C:\Users\ppeters\Documents\Mestrado\OpenDSS_CostaRica_data\DSS\profiles\residential\curve506_00R.txt) useactual=no 
New Loadshape.curve519_00R npts=96 minterval=15 mult=(file=C:\Users\ppeters\Documents\Mestrado\OpenDSS_CostaRica_data\DSS\profiles\residential\curve519_00R.txt) useactual=no 
New Loadshape.curve51_00R npts=96 minterval=15 mult=(file=C:\Users\ppeters\Documents\Mestrado\OpenDSS_CostaRica_data\DSS\profiles\residential\curve51_00R.txt) useactual=no 
New Loadshape.curve530_25R npts=96 minterval=15 mult=(file=C:\Users\ppeters\Documents\Mestrado\OpenDSS_CostaRica_data\DSS\profiles\residential\curve530_25R.txt) useactual=no 
New Loadshape.curve53_00R npts=96 minterval=15 mult=(file=C:\Users\ppeters\Documents\Mestrado\OpenDSS_CostaRica_data\DSS\profiles\residential\curve53_00R.txt) useactual=no 
New Loadshape.curve544_45R npts=96 minterval=15 mult=(file=C:\Users\ppeters\Documents\Mestrado\OpenDSS_CostaRica_data\DSS\profiles\residential\curve544_45R.txt) useactual=no 
New Loadshape.curve556_00R npts=96 minterval=15 mult=(file=C:\Users\ppeters\Documents\Mestrado\OpenDSS_CostaRica_data\DSS\profiles\residential\curve556_00R.txt) useactual=no 
New Loadshape.curve5572_00R npts=96 minterval=15 mult=(file=C:\Users\ppeters\Documents\Mestrado\OpenDSS_CostaRica_data\DSS\profiles\residential\curve5572_00R.txt) useactual=no 
New Loadshape.curve567_55R npts=96 minterval=15 mult=(file=C:\Users\ppeters\Documents\Mestrado\OpenDSS_CostaRica_data\DSS\profiles\residential\curve567_55R.txt) useactual=no 
New Loadshape.curve56_00R npts=96 minterval=15 mult=(file=C:\Users\ppeters\Documents\Mestrado\OpenDSS_CostaRica_data\DSS\profiles\residential\curve56_00R.txt) useactual=no 
New Loadshape.curve582_00R npts=96 minterval=15 mult=(file=C:\Users\ppeters\Documents\Mestrado\OpenDSS_CostaRica_data\DSS\profiles\residential\curve582_00R.txt) useactual=no 
New Loadshape.curve58_00R npts=96 minterval=15 mult=(file=C:\Users\ppeters\Documents\Mestrado\OpenDSS_CostaRica_data\DSS\profiles\residential\curve58_00R.txt) useactual=no 
New Loadshape.curve597_00R npts=96 minterval=15 mult=(file=C:\Users\ppeters\Documents\Mestrado\OpenDSS_CostaRica_data\DSS\profiles\residential\curve597_00R.txt) useactual=no 
New Loadshape.curve5_00R npts=96 minterval=15 mult=(file=C:\Users\ppeters\Documents\Mestrado\OpenDSS_CostaRica_data\DSS\profiles\residential\curve5_00R.txt) useactual=no 
New Loadshape.curve610_00R npts=96 minterval=15 mult=(file=C:\Users\ppeters\Documents\Mestrado\OpenDSS_CostaRica_data\DSS\profiles\residential\curve610_00R.txt) useactual=no 
New Loadshape.curve61_00R npts=96 minterval=15 mult=(file=C:\Users\ppeters\Documents\Mestrado\OpenDSS_CostaRica_data\DSS\profiles\residential\curve61_00R.txt) useactual=no 
New Loadshape.curve625_00R npts=96 minterval=15 mult=(file=C:\Users\ppeters\Documents\Mestrado\OpenDSS_CostaRica_data\DSS\profiles\residential\curve625_00R.txt) useactual=no 
New Loadshape.curve63_00R npts=96 minterval=15 mult=(file=C:\Users\ppeters\Documents\Mestrado\OpenDSS_CostaRica_data\DSS\profiles\residential\curve63_00R.txt) useactual=no 
New Loadshape.curve641_00R npts=96 minterval=15 mult=(file=C:\Users\ppeters\Documents\Mestrado\OpenDSS_CostaRica_data\DSS\profiles\residential\curve641_00R.txt) useactual=no 
New Loadshape.curve658_00R npts=96 minterval=15 mult=(file=C:\Users\ppeters\Documents\Mestrado\OpenDSS_CostaRica_data\DSS\profiles\residential\curve658_00R.txt) useactual=no 
New Loadshape.curve66_00R npts=96 minterval=15 mult=(file=C:\Users\ppeters\Documents\Mestrado\OpenDSS_CostaRica_data\DSS\profiles\residential\curve66_00R.txt) useactual=no 
New Loadshape.curve677_00R npts=96 minterval=15 mult=(file=C:\Users\ppeters\Documents\Mestrado\OpenDSS_CostaRica_data\DSS\profiles\residential\curve677_00R.txt) useactual=no 
New Loadshape.curve692_00R npts=96 minterval=15 mult=(file=C:\Users\ppeters\Documents\Mestrado\OpenDSS_CostaRica_data\DSS\profiles\residential\curve692_00R.txt) useactual=no 
New Loadshape.curve69_00R npts=96 minterval=15 mult=(file=C:\Users\ppeters\Documents\Mestrado\OpenDSS_CostaRica_data\DSS\profiles\residential\curve69_00R.txt) useactual=no 
New Loadshape.curve6_00R npts=96 minterval=15 mult=(file=C:\Users\ppeters\Documents\Mestrado\OpenDSS_CostaRica_data\DSS\profiles\residential\curve6_00R.txt) useactual=no 
New Loadshape.curve71_00R npts=96 minterval=15 mult=(file=C:\Users\ppeters\Documents\Mestrado\OpenDSS_CostaRica_data\DSS\profiles\residential\curve71_00R.txt) useactual=no 
New Loadshape.curve721_00R npts=96 minterval=15 mult=(file=C:\Users\ppeters\Documents\Mestrado\OpenDSS_CostaRica_data\DSS\profiles\residential\curve721_00R.txt) useactual=no 
New Loadshape.curve737_00R npts=96 minterval=15 mult=(file=C:\Users\ppeters\Documents\Mestrado\OpenDSS_CostaRica_data\DSS\profiles\residential\curve737_00R.txt) useactual=no 
New Loadshape.curve73_00R npts=96 minterval=15 mult=(file=C:\Users\ppeters\Documents\Mestrado\OpenDSS_CostaRica_data\DSS\profiles\residential\curve73_00R.txt) useactual=no 
New Loadshape.curve760_00R npts=96 minterval=15 mult=(file=C:\Users\ppeters\Documents\Mestrado\OpenDSS_CostaRica_data\DSS\profiles\residential\curve760_00R.txt) useactual=no 
New Loadshape.curve76_00R npts=96 minterval=15 mult=(file=C:\Users\ppeters\Documents\Mestrado\OpenDSS_CostaRica_data\DSS\profiles\residential\curve76_00R.txt) useactual=no 
New Loadshape.curve778_00R npts=96 minterval=15 mult=(file=C:\Users\ppeters\Documents\Mestrado\OpenDSS_CostaRica_data\DSS\profiles\residential\curve778_00R.txt) useactual=no 
New Loadshape.curve7911_00R npts=96 minterval=15 mult=(file=C:\Users\ppeters\Documents\Mestrado\OpenDSS_CostaRica_data\DSS\profiles\residential\curve7911_00R.txt) useactual=no 
New Loadshape.curve796_04R npts=96 minterval=15 mult=(file=C:\Users\ppeters\Documents\Mestrado\OpenDSS_CostaRica_data\DSS\profiles\residential\curve796_04R.txt) useactual=no 
New Loadshape.curve79_00R npts=96 minterval=15 mult=(file=C:\Users\ppeters\Documents\Mestrado\OpenDSS_CostaRica_data\DSS\profiles\residential\curve79_00R.txt) useactual=no 
New Loadshape.curve7_00R npts=96 minterval=15 mult=(file=C:\Users\ppeters\Documents\Mestrado\OpenDSS_CostaRica_data\DSS\profiles\residential\curve7_00R.txt) useactual=no 
New Loadshape.curve81_00R npts=96 minterval=15 mult=(file=C:\Users\ppeters\Documents\Mestrado\OpenDSS_CostaRica_data\DSS\profiles\residential\curve81_00R.txt) useactual=no 
New Loadshape.curve820_00R npts=96 minterval=15 mult=(file=C:\Users\ppeters\Documents\Mestrado\OpenDSS_CostaRica_data\DSS\profiles\residential\curve820_00R.txt) useactual=no 
New Loadshape.curve83_00R npts=96 minterval=15 mult=(file=C:\Users\ppeters\Documents\Mestrado\OpenDSS_CostaRica_data\DSS\profiles\residential\curve83_00R.txt) useactual=no 
New Loadshape.curve841_00R npts=96 minterval=15 mult=(file=C:\Users\ppeters\Documents\Mestrado\OpenDSS_CostaRica_data\DSS\profiles\residential\curve841_00R.txt) useactual=no 
New Loadshape.curve86_00R npts=96 minterval=15 mult=(file=C:\Users\ppeters\Documents\Mestrado\OpenDSS_CostaRica_data\DSS\profiles\residential\curve86_00R.txt) useactual=no 
New Loadshape.curve870_00R npts=96 minterval=15 mult=(file=C:\Users\ppeters\Documents\Mestrado\OpenDSS_CostaRica_data\DSS\profiles\residential\curve870_00R.txt) useactual=no 
New Loadshape.curve888_00R npts=96 minterval=15 mult=(file=C:\Users\ppeters\Documents\Mestrado\OpenDSS_CostaRica_data\DSS\profiles\residential\curve888_00R.txt) useactual=no 
New Loadshape.curve89_00R npts=96 minterval=15 mult=(file=C:\Users\ppeters\Documents\Mestrado\OpenDSS_CostaRica_data\DSS\profiles\residential\curve89_00R.txt) useactual=no 